Version 4
SHEET 1 1128 680
WIRE 112 48 80 48
WIRE 112 80 112 48
WIRE 112 176 112 160
WIRE -32 208 -128 208
WIRE 320 208 176 208
WIRE -32 240 -32 208
WIRE 176 240 176 208
WIRE -32 352 -32 320
WIRE -32 352 -128 352
WIRE 176 352 176 320
WIRE 320 352 176 352
FLAG -128 208 IN_P
IOPIN -128 208 In
FLAG -128 352 IN_M
IOPIN -128 352 In
FLAG 320 208 OUT_P
IOPIN 320 208 Out
FLAG 320 352 OUT_M
IOPIN 320 352 Out
FLAG 80 48 N
IOPIN 80 48 In
FLAG 112 176 0
SYMBOL bv 176 224 R0
WINDOW 3 54 85 Left 2
SYMATTR Value V=(V(IN_P) - V(IN_M)) * V(N)
SYMATTR InstName BVOUT
SYMBOL bi -32 240 R0
SYMATTR InstName BIN
SYMATTR Value I=-I(BVOUT)*V(N)
SYMBOL res 96 64 R0
SYMATTR InstName R1
SYMATTR Value 10Meg
