Version 4
SHEET 1 880 680
WIRE 144 144 48 144
WIRE 256 144 144 144
WIRE 400 144 352 144
WIRE 48 176 48 144
WIRE 48 272 48 256
FLAG 48 272 0
FLAG 144 144 in
FLAG 400 144 out
SYMBOL PID 304 144 R0
SYMATTR InstName U1
SYMATTR SpiceLine Kp=0.0005025 Ki=0.75 Kd=0
SYMBOL voltage 48 160 R0
WINDOW 123 24 124 Left 2
WINDOW 39 0 0 Left 0
SYMATTR InstName V1
SYMATTR Value ""
SYMATTR Value2 AC 1
TEXT 240 -24 Left 2 !.ac dec 1000 1e-10 1e10
